/*--------------------------------*- C++ -*----------------------------------*\
| =========                 |                                                 |
| \\      /  F ield         | OpenFOAM: The Open Source CFD Toolbox           |
|  \\    /   O peration     | Version:  v2206                                 |
|   \\  /    A nd           | Website:  www.openfoam.com                      |
|    \\/     M anipulation  |                                                 |
\*---------------------------------------------------------------------------*/
FoamFile
{
    version     2.0;
    format      ascii;
    class       dictionary;
    object      fvSolution;
}
// * * * * * * * * * * * * * * * * * * * * * * * * * * * * * * * * * * * * * //

solvers
{
    "pcorr.*"
    {
        solver           GAMG;
        tolerance        0.1;
        relTol           0;
        smoother         GaussSeidel;
    }

    p
    {
        $pcorr;
        tolerance        1e-5;
        relTol           0.1;
    }

    pFinal
    {
        $p;
        tolerance        1e-5;
        relTol           0;
    }

    "(U|k|omega|epsilon|nuTilda)"
    {
        solver          smoothSolver;
        smoother        GaussSeidel;
        tolerance       1e-06;
        relTol          0.1;
    }

    "(U|k|omega|epsilon|nuTilda)Final"
    {
        $U;
        tolerance       1e-06;
        relTol          0;
    }

    cellDisplacement
    {
        solver          GAMG;
        tolerance       1e-5;
        relTol          0;
        smoother        GaussSeidel;
    }

    Phi
    {
        $p;
    }

}

SIMPLE
{
    nNonOrthogonalCorrectors 0;
    residualControl
    {
        p               1e-5;
        U               1e-5;
        "(k|epsilon|omega|nuTilda)" 1e-5;
    }
}

relaxationFactors
{
    fields
    {
        p               0.3;
    }
    equations
    {
        "(U|k|omega|epsilon|nuTilda)"   0.7;
        "(U|k|omega|epsilon|nuTilda)Final" 1.0;
    }
}

potentialFlow
{
    nNonOrthogonalCorrectors 10;
}

cache
{
    grad(U);
}


// ************************************************************************* //
